MODEL 1
REMARK VINA RESULT:    -5.645      0.000      0.000
REMARK INTER + INTRA:         -11.261
REMARK INTER:                 -10.596
REMARK INTRA:                  -0.665
REMARK UNBOUND:                -0.665
REMARK SMILES [H]/N=C(\N)c1ccc(CNC(=O)[C@@H]2CCCN2C(=O)CNC2CCCCCCC2)cn1
REMARK SMILES IDX 20 1 18 2 19 3 17 4 13 5 16 6 14 7 15 8 11 9 12 10 10 11
REMARK SMILES IDX 9 13 8 14 7 15 30 16 6 17 31 18 5 19 3 20 2 21 4 22 1 23
REMARK SMILES IDX 21 26 22 28 23 29 24 30 25 31 29 33 28 34 27 35 26 36
REMARK H PARENT 10 12 4 24 4 25 21 27
REMARK Flexibility Score: 80.00
ROOT
ATOM      1  C   UNL     1      17.912  -9.948  11.993  1.00  0.00     0.182 C 
ENDROOT
BRANCH   1   2
ATOM      2  C   UNL     1      17.985  -9.194  13.329  1.00  0.00     0.237 C 
ATOM      3  O   UNL     1      19.034  -8.662  13.705  1.00  0.00    -0.273 OA
BRANCH   2   4
ATOM      4  N   UNL     1      16.842  -9.154  14.110  1.00  0.00    -0.330 N 
ATOM      5  C   UNL     1      15.675  -8.349  13.709  1.00  0.00     0.174 C 
ATOM      6  C   UNL     1      16.489 -10.082  15.173  1.00  0.00     0.120 C 
ATOM      7  C   UNL     1      14.547  -8.827  14.634  1.00  0.00     0.037 C 
ATOM      8  C   UNL     1      14.983 -10.227  15.044  1.00  0.00     0.024 C 
BRANCH   5   9
ATOM      9  C   UNL     1      15.944  -6.835  13.869  1.00  0.00     0.243 C 
ATOM     10  O   UNL     1      16.127  -6.285  14.952  1.00  0.00    -0.273 OA
ATOM     11  N   UNL     1      15.987  -6.155  12.669  1.00  0.00    -0.350 N 
ATOM     12  H   UNL     1      16.180  -6.736  11.850  1.00  0.00     0.163 HD
BRANCH  11  13
ATOM     13  C   UNL     1      16.413  -4.779  12.607  1.00  0.00     0.153 C 
BRANCH  13  14
ATOM     14  C   UNL     1      16.948  -4.452  11.243  1.00  0.00    -0.010 A 
ATOM     15  C   UNL     1      16.282  -3.546  10.408  1.00  0.00     0.009 A 
ATOM     16  C   UNL     1      18.095  -5.068  10.746  1.00  0.00     0.117 A 
ATOM     17  C   UNL     1      16.784  -3.281   9.137  1.00  0.00     0.032 A 
ATOM     18  N   UNL     1      18.618  -4.831   9.519  1.00  0.00    -0.253 NA
ATOM     19  C   UNL     1      17.938  -3.942   8.742  1.00  0.00     0.104 A 
BRANCH  19  20
ATOM     20  C   UNL     1      18.537  -3.706   7.383  1.00  0.00     0.141 C 
ATOM     21  N   UNL     1      19.821  -3.720   7.205  1.00  0.00    -0.283 NA
ATOM     22  N   UNL     1      17.697  -3.487   6.324  1.00  0.00    -0.382 N 
ATOM     23  H   UNL     1      20.013  -3.505   6.223  1.00  0.00     0.189 HD
ATOM     24  H   UNL     1      17.998  -3.875   5.439  1.00  0.00     0.158 HD
ATOM     25  H   UNL     1      16.730  -3.727   6.548  1.00  0.00     0.158 HD
ENDBRANCH  19  20
ENDBRANCH  13  14
ENDBRANCH  11  13
ENDBRANCH   5   9
ENDBRANCH   2   4
ENDBRANCH   1   2
BRANCH   1  26
ATOM     26  N   UNL     1      17.593 -11.362  12.239  1.00  0.00    -0.306 NA
ATOM     27  H   UNL     1      16.682 -11.450  12.683  1.00  0.00     0.123 HD
BRANCH  26  28
ATOM     28  C   UNL     1      17.662 -12.191  11.025  1.00  0.00     0.054 C 
BRANCH  28  29
ATOM     29  C   UNL     1      19.023 -12.919  11.017  1.00  0.00     0.019 C 
BRANCH  29  30
ATOM     30  C   UNL     1      19.518 -13.462   9.676  1.00  0.00     0.002 C 
BRANCH  30  31
ATOM     31  C   UNL     1      19.081 -14.899   9.364  1.00  0.00     0.000 CG0
ATOM     32  G   UNL     1      17.885 -15.015   8.421  1.00  0.00     0.000 G0
ENDBRANCH  30  31
ENDBRANCH  29  30
ENDBRANCH  28  29
BRANCH  28  33
ATOM     33  C   UNL     1      16.424 -13.100  10.914  1.00  0.00     0.019 C 
BRANCH  33  34
ATOM     34  C   UNL     1      16.053 -13.485   9.481  1.00  0.00     0.002 C 
BRANCH  34  35
ATOM     35  C   UNL     1      16.512 -14.884   9.072  1.00  0.00     0.000 C 
BRANCH  35  36
ATOM     36  C   UNL     1      17.886 -15.012   8.413  1.00  0.00     0.000 CG0
ATOM     37  G   UNL     1      19.085 -14.910   9.353  1.00  0.00     0.000 G0
ENDBRANCH  35  36
ENDBRANCH  34  35
ENDBRANCH  33  34
ENDBRANCH  28  33
ENDBRANCH  26  28
ENDBRANCH   1  26
TORSDOF 8
ENDMDL
MODEL 2
REMARK VINA RESULT:    -5.587      3.523      8.343
REMARK INTER + INTRA:         -11.152
REMARK INTER:                 -10.445
REMARK INTRA:                  -0.707
REMARK UNBOUND:                -0.665
REMARK SMILES [H]/N=C(\N)c1ccc(CNC(=O)[C@@H]2CCCN2C(=O)CNC2CCCCCCC2)cn1
REMARK SMILES IDX 20 1 18 2 19 3 17 4 13 5 16 6 14 7 15 8 11 9 12 10 10 11
REMARK SMILES IDX 9 13 8 14 7 15 30 16 6 17 31 18 5 19 3 20 2 21 4 22 1 23
REMARK SMILES IDX 21 26 22 28 23 29 24 30 25 31 29 33 28 34 27 35 26 36
REMARK H PARENT 10 12 4 24 4 25 21 27
REMARK Flexibility Score: 80.00
ROOT
ATOM      1  C   UNL     1      16.489  -5.929  12.897  1.00  0.00     0.182 C 
ENDROOT
BRANCH   1   2
ATOM      2  C   UNL     1      16.741  -6.776  14.153  1.00  0.00     0.237 C 
ATOM      3  O   UNL     1      17.300  -6.297  15.144  1.00  0.00    -0.273 OA
BRANCH   2   4
ATOM      4  N   UNL     1      16.344  -8.103  14.126  1.00  0.00    -0.330 N 
ATOM      5  C   UNL     1      17.313  -9.191  14.343  1.00  0.00     0.174 C 
ATOM      6  C   UNL     1      14.980  -8.599  14.225  1.00  0.00     0.120 C 
ATOM      7  C   UNL     1      16.444 -10.438  14.560  1.00  0.00     0.037 C 
ATOM      8  C   UNL     1      15.114  -9.873  15.040  1.00  0.00     0.024 C 
BRANCH   5   9
ATOM      9  C   UNL     1      18.263  -9.358  13.133  1.00  0.00     0.243 C 
ATOM     10  O   UNL     1      19.129  -8.543  12.828  1.00  0.00    -0.273 OA
ATOM     11  N   UNL     1      18.064 -10.533  12.438  1.00  0.00    -0.350 N 
ATOM     12  H   UNL     1      17.593 -11.272  12.964  1.00  0.00     0.163 HD
BRANCH  11  13
ATOM     13  C   UNL     1      18.976 -10.949  11.402  1.00  0.00     0.153 C 
BRANCH  13  14
ATOM     14  C   UNL     1      18.404 -12.098  10.623  1.00  0.00    -0.010 A 
ATOM     15  C   UNL     1      17.029 -12.363  10.637  1.00  0.00     0.009 A 
ATOM     16  C   UNL     1      19.223 -12.964   9.900  1.00  0.00     0.117 A 
ATOM     17  C   UNL     1      16.528 -13.452   9.929  1.00  0.00     0.032 A 
ATOM     18  N   UNL     1      18.773 -14.028   9.193  1.00  0.00    -0.253 NA
ATOM     19  C   UNL     1      17.428 -14.247   9.234  1.00  0.00     0.104 A 
BRANCH  19  20
ATOM     20  C   UNL     1      16.959 -15.439   8.448  1.00  0.00     0.141 C 
ATOM     21  N   UNL     1      17.472 -16.614   8.642  1.00  0.00    -0.283 NA
ATOM     22  N   UNL     1      15.962 -15.266   7.525  1.00  0.00    -0.382 N 
ATOM     23  H   UNL     1      17.037 -17.267   7.985  1.00  0.00     0.189 HD
ATOM     24  H   UNL     1      15.307 -16.034   7.438  1.00  0.00     0.158 HD
ATOM     25  H   UNL     1      15.495 -14.365   7.633  1.00  0.00     0.158 HD
ENDBRANCH  19  20
ENDBRANCH  13  14
ENDBRANCH  11  13
ENDBRANCH   5   9
ENDBRANCH   2   4
ENDBRANCH   1   2
BRANCH   1  26
ATOM     26  N   UNL     1      17.348  -6.399  11.801  1.00  0.00    -0.306 NA
ATOM     27  H   UNL     1      16.983  -7.264  11.408  1.00  0.00     0.123 HD
BRANCH  26  28
ATOM     28  C   UNL     1      17.546  -5.392  10.747  1.00  0.00     0.054 C 
BRANCH  28  29
ATOM     29  C   UNL     1      16.988  -4.046  11.256  1.00  0.00     0.019 C 
BRANCH  29  30
ATOM     30  C   UNL     1      16.204  -3.192  10.259  1.00  0.00     0.002 C 
BRANCH  30  31
ATOM     31  C   UNL     1      16.298  -3.657   8.800  1.00  0.00     0.000 CG0
ATOM     32  G   UNL     1      17.515  -3.137   8.039  1.00  0.00     0.000 G0
ENDBRANCH  30  31
ENDBRANCH  29  30
ENDBRANCH  28  29
BRANCH  28  33
ATOM     33  C   UNL     1      19.015  -5.368  10.284  1.00  0.00     0.019 C 
BRANCH  33  34
ATOM     34  C   UNL     1      19.424  -4.087   9.553  1.00  0.00     0.002 C 
BRANCH  34  35
ATOM     35  C   UNL     1      18.826  -3.949   8.154  1.00  0.00     0.000 C 
BRANCH  35  36
ATOM     36  C   UNL     1      17.535  -3.142   8.014  1.00  0.00     0.000 CG0
ATOM     37  G   UNL     1      16.337  -3.667   8.802  1.00  0.00     0.000 G0
ENDBRANCH  35  36
ENDBRANCH  34  35
ENDBRANCH  33  34
ENDBRANCH  28  33
ENDBRANCH  26  28
ENDBRANCH   1  26
TORSDOF 8
ENDMDL
MODEL 3
REMARK VINA RESULT:    -5.375      1.353      2.227
REMARK INTER + INTRA:         -10.753
REMARK INTER:                  -9.992
REMARK INTRA:                  -0.761
REMARK UNBOUND:                -0.665
REMARK SMILES [H]/N=C(\N)c1ccc(CNC(=O)[C@@H]2CCCN2C(=O)CNC2CCCCCCC2)cn1
REMARK SMILES IDX 20 1 18 2 19 3 17 4 13 5 16 6 14 7 15 8 11 9 12 10 10 11
REMARK SMILES IDX 9 13 8 14 7 15 30 16 6 17 31 18 5 19 3 20 2 21 4 22 1 23
REMARK SMILES IDX 21 26 22 28 23 29 24 30 25 31 29 33 28 34 27 35 26 36
REMARK H PARENT 10 12 4 24 4 25 21 27
REMARK Flexibility Score: 80.00
ROOT
ATOM      1  C   UNL     1      17.968 -10.402  11.338  1.00  0.00     0.182 C 
ENDROOT
BRANCH   1   2
ATOM      2  C   UNL     1      17.520 -10.111  12.778  1.00  0.00     0.237 C 
ATOM      3  O   UNL     1      16.674 -10.814  13.337  1.00  0.00    -0.273 OA
BRANCH   2   4
ATOM      4  N   UNL     1      18.078  -9.016  13.417  1.00  0.00    -0.330 N 
ATOM      5  C   UNL     1      17.249  -8.103  14.223  1.00  0.00     0.174 C 
ATOM      6  C   UNL     1      19.492  -8.796  13.678  1.00  0.00     0.120 C 
ATOM      7  C   UNL     1      18.264  -7.255  15.003  1.00  0.00     0.037 C 
ATOM      8  C   UNL     1      19.511  -8.127  15.041  1.00  0.00     0.024 C 
BRANCH   5   9
ATOM      9  C   UNL     1      16.334  -7.229  13.335  1.00  0.00     0.243 C 
ATOM     10  O   UNL     1      15.195  -7.548  13.007  1.00  0.00    -0.273 OA
ATOM     11  N   UNL     1      16.912  -6.032  12.963  1.00  0.00    -0.350 N 
ATOM     12  H   UNL     1      17.679  -5.719  13.561  1.00  0.00     0.163 HD
BRANCH  11  13
ATOM     13  C   UNL     1      16.144  -5.010  12.296  1.00  0.00     0.153 C 
BRANCH  13  14
ATOM     14  C   UNL     1      16.791  -4.624  10.998  1.00  0.00    -0.010 A 
ATOM     15  C   UNL     1      16.120  -3.818  10.072  1.00  0.00     0.009 A 
ATOM     16  C   UNL     1      18.059  -5.088  10.653  1.00  0.00     0.117 A 
ATOM     17  C   UNL     1      16.731  -3.497   8.863  1.00  0.00     0.032 A 
ATOM     18  N   UNL     1      18.690  -4.793   9.491  1.00  0.00    -0.253 NA
ATOM     19  C   UNL     1      17.999  -4.005   8.620  1.00  0.00     0.104 A 
BRANCH  19  20
ATOM     20  C   UNL     1      18.721  -3.701   7.337  1.00  0.00     0.141 C 
ATOM     21  N   UNL     1      18.073  -3.548   6.224  1.00  0.00    -0.283 NA
ATOM     22  N   UNL     1      20.084  -3.572   7.364  1.00  0.00    -0.382 N 
ATOM     23  H   UNL     1      18.752  -3.384   5.476  1.00  0.00     0.189 HD
ATOM     24  H   UNL     1      20.471  -2.874   6.741  1.00  0.00     0.158 HD
ATOM     25  H   UNL     1      20.440  -3.486   8.317  1.00  0.00     0.158 HD
ENDBRANCH  19  20
ENDBRANCH  13  14
ENDBRANCH  11  13
ENDBRANCH   5   9
ENDBRANCH   2   4
ENDBRANCH   1   2
BRANCH   1  26
ATOM     26  N   UNL     1      19.023 -11.425  11.344  1.00  0.00    -0.306 NA
ATOM     27  H   UNL     1      19.329 -11.616  12.295  1.00  0.00     0.123 HD
BRANCH  26  28
ATOM     28  C   UNL     1      18.629 -12.669  10.664  1.00  0.00     0.054 C 
BRANCH  28  29
ATOM     29  C   UNL     1      17.148 -12.541  10.248  1.00  0.00     0.019 C 
BRANCH  29  30
ATOM     30  C   UNL     1      16.342 -13.836  10.125  1.00  0.00     0.002 C 
BRANCH  30  31
ATOM     31  C   UNL     1      16.421 -14.513   8.751  1.00  0.00     0.000 CG0
ATOM     32  G   UNL     1      17.631 -15.423   8.554  1.00  0.00     0.000 G0
ENDBRANCH  30  31
ENDBRANCH  29  30
ENDBRANCH  28  29
BRANCH  28  33
ATOM     33  C   UNL     1      19.610 -13.003   9.525  1.00  0.00     0.019 C 
BRANCH  33  34
ATOM     34  C   UNL     1      19.911 -14.495   9.370  1.00  0.00     0.002 C 
BRANCH  34  35
ATOM     35  C   UNL     1      18.704 -15.402   9.607  1.00  0.00     0.000 C 
BRANCH  35  36
ATOM     36  C   UNL     1      17.629 -15.445   8.521  1.00  0.00     0.000 CG0
ATOM     37  G   UNL     1      16.422 -14.537   8.745  1.00  0.00     0.000 G0
ENDBRANCH  35  36
ENDBRANCH  34  35
ENDBRANCH  33  34
ENDBRANCH  28  33
ENDBRANCH  26  28
ENDBRANCH   1  26
TORSDOF 8
ENDMDL
MODEL 4
REMARK VINA RESULT:    -4.973      1.341      1.637
REMARK INTER + INTRA:          -9.998
REMARK INTER:                  -9.396
REMARK INTRA:                  -0.602
REMARK UNBOUND:                -0.665
REMARK SMILES [H]/N=C(\N)c1ccc(CNC(=O)[C@@H]2CCCN2C(=O)CNC2CCCCCCC2)cn1
REMARK SMILES IDX 20 1 18 2 19 3 17 4 13 5 16 6 14 7 15 8 11 9 12 10 10 11
REMARK SMILES IDX 9 13 8 14 7 15 30 16 6 17 31 18 5 19 3 20 2 21 4 22 1 23
REMARK SMILES IDX 21 26 22 28 23 29 24 30 25 31 29 33 28 34 27 35 26 36
REMARK H PARENT 10 12 4 24 4 25 21 27
REMARK Flexibility Score: 80.00
ROOT
ATOM      1  C   UNL     1      17.617 -11.108  11.717  1.00  0.00     0.182 C 
ENDROOT
BRANCH   1   2
ATOM      2  C   UNL     1      17.927 -10.615  13.138  1.00  0.00     0.237 C 
ATOM      3  O   UNL     1      19.084 -10.362  13.487  1.00  0.00    -0.273 OA
BRANCH   2   4
ATOM      4  N   UNL     1      16.869 -10.489  14.022  1.00  0.00    -0.330 N 
ATOM      5  C   UNL     1      15.897  -9.390  13.894  1.00  0.00     0.174 C 
ATOM      6  C   UNL     1      16.371 -11.516  14.925  1.00  0.00     0.120 C 
ATOM      7  C   UNL     1      14.742  -9.792  14.822  1.00  0.00     0.037 C 
ATOM      8  C   UNL     1      14.867 -11.305  14.922  1.00  0.00     0.024 C 
BRANCH   5   9
ATOM      9  C   UNL     1      16.515  -8.032  14.303  1.00  0.00     0.243 C 
ATOM     10  O   UNL     1      17.456  -7.919  15.084  1.00  0.00    -0.273 OA
ATOM     11  N   UNL     1      15.923  -6.951  13.684  1.00  0.00    -0.350 N 
ATOM     12  H   UNL     1      15.421  -7.169  12.821  1.00  0.00     0.163 HD
BRANCH  11  13
ATOM     13  C   UNL     1      16.486  -5.628  13.795  1.00  0.00     0.153 C 
BRANCH  13  14
ATOM     14  C   UNL     1      16.840  -5.088  12.440  1.00  0.00    -0.010 A 
ATOM     15  C   UNL     1      16.430  -3.809  12.047  1.00  0.00     0.009 A 
ATOM     16  C   UNL     1      17.547  -5.855  11.516  1.00  0.00     0.117 A 
ATOM     17  C   UNL     1      16.748  -3.342  10.774  1.00  0.00     0.032 A 
ATOM     18  N   UNL     1      17.882  -5.434  10.272  1.00  0.00    -0.253 NA
ATOM     19  C   UNL     1      17.463  -4.183   9.933  1.00  0.00     0.104 A 
BRANCH  19  20
ATOM     20  C   UNL     1      17.841  -3.746   8.545  1.00  0.00     0.141 C 
ATOM     21  N   UNL     1      16.938  -3.545   7.636  1.00  0.00    -0.283 NA
ATOM     22  N   UNL     1      19.166  -3.549   8.256  1.00  0.00    -0.382 N 
ATOM     23  H   UNL     1      17.410  -3.290   6.764  1.00  0.00     0.189 HD
ATOM     24  H   UNL     1      19.367  -2.787   7.620  1.00  0.00     0.158 HD
ATOM     25  H   UNL     1      19.739  -3.516   9.100  1.00  0.00     0.158 HD
ENDBRANCH  19  20
ENDBRANCH  13  14
ENDBRANCH  11  13
ENDBRANCH   5   9
ENDBRANCH   2   4
ENDBRANCH   1   2
BRANCH   1  26
ATOM     26  N   UNL     1      17.357 -12.554  11.739  1.00  0.00    -0.306 NA
ATOM     27  H   UNL     1      16.434 -12.757  11.363  1.00  0.00     0.123 HD
BRANCH  26  28
ATOM     28  C   UNL     1      18.387 -13.339  11.041  1.00  0.00     0.054 C 
BRANCH  28  29
ATOM     29  C   UNL     1      18.499 -14.712  11.736  1.00  0.00     0.019 C 
BRANCH  29  30
ATOM     30  C   UNL     1      18.995 -15.887  10.891  1.00  0.00     0.002 C 
BRANCH  30  31
ATOM     31  C   UNL     1      17.896 -16.641  10.132  1.00  0.00     0.000 CG0
ATOM     32  G   UNL     1      17.608 -16.114   8.728  1.00  0.00     0.000 G0
ENDBRANCH  30  31
ENDBRANCH  29  30
ENDBRANCH  28  29
BRANCH  28  33
ATOM     33  C   UNL     1      18.106 -13.384   9.527  1.00  0.00     0.019 C 
BRANCH  33  34
ATOM     34  C   UNL     1      16.656 -13.708   9.165  1.00  0.00     0.002 C 
BRANCH  34  35
ATOM     35  C   UNL     1      16.457 -15.104   8.575  1.00  0.00     0.000 C 
BRANCH  35  36
ATOM     36  C   UNL     1      17.614 -16.095   8.701  1.00  0.00     0.000 CG0
ATOM     37  G   UNL     1      17.890 -16.618  10.108  1.00  0.00     0.000 G0
ENDBRANCH  35  36
ENDBRANCH  34  35
ENDBRANCH  33  34
ENDBRANCH  28  33
ENDBRANCH  26  28
ENDBRANCH   1  26
TORSDOF 8
ENDMDL
MODEL 5
REMARK VINA RESULT:    -4.703      1.647      2.206
REMARK INTER + INTRA:          -9.492
REMARK INTER:                  -8.639
REMARK INTRA:                  -0.853
REMARK UNBOUND:                -0.665
REMARK SMILES [H]/N=C(\N)c1ccc(CNC(=O)[C@@H]2CCCN2C(=O)CNC2CCCCCCC2)cn1
REMARK SMILES IDX 20 1 18 2 19 3 17 4 13 5 16 6 14 7 15 8 11 9 12 10 10 11
REMARK SMILES IDX 9 13 8 14 7 15 30 16 6 17 31 18 5 19 3 20 2 21 4 22 1 23
REMARK SMILES IDX 21 26 22 28 23 29 24 30 25 31 29 33 28 34 27 35 26 36
REMARK H PARENT 10 12 4 24 4 25 21 27
REMARK Flexibility Score: 80.00
ROOT
ATOM      1  C   UNL     1      18.927 -10.781  12.441  1.00  0.00     0.182 C 
ENDROOT
BRANCH   1   2
ATOM      2  C   UNL     1      18.529  -9.300  12.370  1.00  0.00     0.237 C 
ATOM      3  O   UNL     1      18.488  -8.702  11.290  1.00  0.00    -0.273 OA
BRANCH   2   4
ATOM      4  N   UNL     1      18.245  -8.651  13.559  1.00  0.00    -0.330 N 
ATOM      5  C   UNL     1      16.854  -8.459  14.007  1.00  0.00     0.174 C 
ATOM      6  C   UNL     1      19.178  -8.385  14.643  1.00  0.00     0.120 C 
ATOM      7  C   UNL     1      16.984  -8.017  15.472  1.00  0.00     0.037 C 
ATOM      8  C   UNL     1      18.339  -8.562  15.897  1.00  0.00     0.024 C 
BRANCH   5   9
ATOM      9  C   UNL     1      16.120  -7.400  13.152  1.00  0.00     0.243 C 
ATOM     10  O   UNL     1      15.005  -7.570  12.667  1.00  0.00    -0.273 OA
ATOM     11  N   UNL     1      16.828  -6.226  13.005  1.00  0.00    -0.350 N 
ATOM     12  H   UNL     1      17.544  -6.061  13.716  1.00  0.00     0.163 HD
BRANCH  11  13
ATOM     13  C   UNL     1      16.226  -5.062  12.404  1.00  0.00     0.153 C 
BRANCH  13  14
ATOM     14  C   UNL     1      16.890  -4.737  11.098  1.00  0.00    -0.010 A 
ATOM     15  C   UNL     1      18.133  -5.289  10.766  1.00  0.00     0.009 A 
ATOM     16  C   UNL     1      16.316  -3.844  10.194  1.00  0.00     0.117 A 
ATOM     17  C   UNL     1      18.741  -4.949   9.560  1.00  0.00     0.032 A 
ATOM     18  N   UNL     1      16.872  -3.494   9.009  1.00  0.00    -0.253 NA
ATOM     19  C   UNL     1      18.081  -4.056   8.728  1.00  0.00     0.104 A 
BRANCH  19  20
ATOM     20  C   UNL     1      18.677  -3.644   7.411  1.00  0.00     0.141 C 
ATOM     21  N   UNL     1      17.924  -3.294   6.415  1.00  0.00    -0.283 NA
ATOM     22  N   UNL     1      20.041  -3.629   7.283  1.00  0.00    -0.382 N 
ATOM     23  H   UNL     1      18.526  -3.087   5.613  1.00  0.00     0.189 HD
ATOM     24  H   UNL     1      20.419  -2.888   6.706  1.00  0.00     0.158 HD
ATOM     25  H   UNL     1      20.509  -3.698   8.187  1.00  0.00     0.158 HD
ENDBRANCH  19  20
ENDBRANCH  13  14
ENDBRANCH  11  13
ENDBRANCH   5   9
ENDBRANCH   2   4
ENDBRANCH   1   2
BRANCH   1  26
ATOM     26  N   UNL     1      18.895 -11.368  11.094  1.00  0.00    -0.306 NA
ATOM     27  H   UNL     1      19.709 -11.075  10.558  1.00  0.00     0.123 HD
BRANCH  26  28
ATOM     28  C   UNL     1      18.780 -12.836  11.103  1.00  0.00     0.054 C 
BRANCH  28  29
ATOM     29  C   UNL     1      18.758 -13.307  12.573  1.00  0.00     0.019 C 
BRANCH  29  30
ATOM     30  C   UNL     1      18.257 -14.726  12.844  1.00  0.00     0.002 C 
BRANCH  30  31
ATOM     31  C   UNL     1      19.065 -15.835  12.159  1.00  0.00     0.000 CG0
ATOM     32  G   UNL     1      18.536 -16.263  10.792  1.00  0.00     0.000 G0
ENDBRANCH  30  31
ENDBRANCH  29  30
ENDBRANCH  28  29
BRANCH  28  33
ATOM     33  C   UNL     1      17.589 -13.295  10.241  1.00  0.00     0.019 C 
BRANCH  33  34
ATOM     34  C   UNL     1      17.955 -14.298   9.146  1.00  0.00     0.002 C 
BRANCH  34  35
ATOM     35  C   UNL     1      18.934 -15.382   9.594  1.00  0.00     0.000 C 
BRANCH  35  36
ATOM     36  C   UNL     1      18.525 -16.256  10.781  1.00  0.00     0.000 CG0
ATOM     37  G   UNL     1      19.059 -15.818  12.142  1.00  0.00     0.000 G0
ENDBRANCH  35  36
ENDBRANCH  34  35
ENDBRANCH  33  34
ENDBRANCH  28  33
ENDBRANCH  26  28
ENDBRANCH   1  26
TORSDOF 8
ENDMDL
