13U
     RDKit          3D

 68 70  0  0  0  0  0  0  0  0999 V2000
   -1.0829    1.5754   -0.8985 C   0  0  0  0  0  0  0  0  0  0  0  0
   -0.1549    0.7696   -1.0251 O   0  0  0  0  0  0  0  0  0  0  0  0
   -2.5495    1.1120   -0.7831 C   0  0  0  0  0  0  0  0  0  0  0  0
   -2.6528   -0.3221   -1.1082 N   0  0  0  0  0  0  0  0  0  0  0  0
   -3.8745   -0.9585   -0.5748 C   0  0  0  0  0  0  0  0  0  0  0  0
   -3.7419   -2.4869   -0.7473 C   0  0  0  0  0  0  0  0  0  0  0  0
   -4.1803   -3.3004    0.4761 C   0  0  0  0  0  0  0  0  0  0  0  0
   -5.6739   -3.3275    0.8096 C   0  0  0  0  0  0  0  0  0  0  0  0
   -6.2479   -1.9952    1.2926 C   0  0  0  0  0  0  0  0  0  0  0  0
   -7.0257   -1.2047    0.2413 C   0  0  0  0  0  0  0  0  0  0  0  0
   -6.4343   -1.1247   -1.1626 C   0  0  0  0  0  0  0  0  0  0  0  0
   -5.1079   -0.3758   -1.2952 C   0  0  0  0  0  0  0  0  0  0  0  0
   -0.8376    2.9300   -0.7831 N   0  0  0  0  0  0  0  0  0  0  0  0
    0.5169    3.4875   -0.9433 C   0  0  2  0  0  0  0  0  0  0  0  0
    1.4195    3.1795    0.2768 C   0  0  0  0  0  0  0  0  0  0  0  0
    1.7023    4.0088    1.1372 O   0  0  0  0  0  0  0  0  0  0  0  0
    0.2919    5.0001   -1.1108 C   0  0  0  0  0  0  0  0  0  0  0  0
   -1.1668    5.1189   -1.5294 C   0  0  0  0  0  0  0  0  0  0  0  0
   -1.8317    3.9911   -0.7615 C   0  0  0  0  0  0  0  0  0  0  0  0
    1.8911    1.8841    0.3101 N   0  0  0  0  0  0  0  0  0  0  0  0
    2.5919    1.3638    1.4560 C   0  0  0  0  0  0  0  0  0  0  0  0
    3.5480    0.2703    1.0553 C   0  0  0  0  0  0  0  0  0  0  0  0
    3.0858   -1.0336    0.8096 C   0  0  0  0  0  0  0  0  0  0  0  0
    3.9665   -2.0589    0.4198 C   0  0  0  0  0  0  0  0  0  0  0  0
    5.3335   -1.7562    0.2945 C   0  0  0  0  0  0  0  0  0  0  0  0
    6.3440   -2.7886   -0.0612 C   0  0  0  0  0  0  0  0  0  0  0  0
    7.2004   -2.6041   -1.0161 N   0  0  0  0  0  0  0  0  0  0  0  0
    6.4192   -3.9509    0.6429 N   0  0  0  0  0  0  0  0  0  0  0  0
    5.7994   -0.4539    0.5183 C   0  0  0  0  0  0  0  0  0  0  0  0
    4.9097    0.5539    0.8899 C   0  0  0  0  0  0  0  0  0  0  0  0
    3.4224   -3.4346    0.1498 C   0  0  0  0  0  0  0  0  0  0  0  0
   -3.1635    1.6695   -1.4930 H   0  0  0  0  0  0  0  0  0  0  0  0
   -2.8694    1.3151    0.2449 H   0  0  0  0  0  0  0  0  0  0  0  0
   -1.8181   -0.7841   -0.7340 H   0  0  0  0  0  0  0  0  0  0  0  0
   -3.9191   -0.7220    0.4923 H   0  0  0  0  0  0  0  0  0  0  0  0
   -4.2551   -2.8374   -1.6502 H   0  0  0  0  0  0  0  0  0  0  0  0
   -2.6865   -2.7498   -0.9061 H   0  0  0  0  0  0  0  0  0  0  0  0
   -3.8654   -4.3390    0.3040 H   0  0  0  0  0  0  0  0  0  0  0  0
   -3.6163   -2.9608    1.3548 H   0  0  0  0  0  0  0  0  0  0  0  0
   -6.2500   -3.7351   -0.0276 H   0  0  0  0  0  0  0  0  0  0  0  0
   -5.7974   -4.0485    1.6288 H   0  0  0  0  0  0  0  0  0  0  0  0
   -6.9523   -2.2078    2.1098 H   0  0  0  0  0  0  0  0  0  0  0  0
   -5.4731   -1.3735    1.7505 H   0  0  0  0  0  0  0  0  0  0  0  0
   -8.0172   -1.6659    0.1476 H   0  0  0  0  0  0  0  0  0  0  0  0
   -7.2041   -0.1923    0.6218 H   0  0  0  0  0  0  0  0  0  0  0  0
   -7.1657   -0.5969   -1.7905 H   0  0  0  0  0  0  0  0  0  0  0  0
   -6.3599   -2.1220   -1.6075 H   0  0  0  0  0  0  0  0  0  0  0  0
   -4.8891   -0.3139   -2.3716 H   0  0  0  0  0  0  0  0  0  0  0  0
   -5.2650    0.6582   -0.9609 H   0  0  0  0  0  0  0  0  0  0  0  0
    0.9696    3.0603   -1.8469 H   0  0  0  0  0  0  0  0  0  0  0  0
    0.4395    5.5530   -0.1762 H   0  0  0  0  0  0  0  0  0  0  0  0
    0.9699    5.4314   -1.8552 H   0  0  0  0  0  0  0  0  0  0  0  0
   -1.5977    6.0977   -1.3014 H   0  0  0  0  0  0  0  0  0  0  0  0
   -1.2550    4.9453   -2.6088 H   0  0  0  0  0  0  0  0  0  0  0  0
   -2.7837    3.7009   -1.2074 H   0  0  0  0  0  0  0  0  0  0  0  0
   -1.9962    4.2673    0.2858 H   0  0  0  0  0  0  0  0  0  0  0  0
    1.4135    1.2125   -0.2974 H   0  0  0  0  0  0  0  0  0  0  0  0
    1.8434    0.9772    2.1577 H   0  0  0  0  0  0  0  0  0  0  0  0
    3.1241    2.1687    1.9759 H   0  0  0  0  0  0  0  0  0  0  0  0
    2.0217   -1.2480    0.9110 H   0  0  0  0  0  0  0  0  0  0  0  0
    7.0224   -1.7108   -1.4875 H   0  0  0  0  0  0  0  0  0  0  0  0
    7.2970   -4.4306    0.4680 H   0  0  0  0  0  0  0  0  0  0  0  0
    6.1890   -3.8884    1.6269 H   0  0  0  0  0  0  0  0  0  0  0  0
    6.8588   -0.2252    0.4241 H   0  0  0  0  0  0  0  0  0  0  0  0
    5.2852    1.5621    1.0567 H   0  0  0  0  0  0  0  0  0  0  0  0
    3.6342   -4.1036    0.9906 H   0  0  0  0  0  0  0  0  0  0  0  0
    2.3353   -3.4092    0.0037 H   0  0  0  0  0  0  0  0  0  0  0  0
    3.8559   -3.8494   -0.7681 H   0  0  0  0  0  0  0  0  0  0  0  0
 15 16  2  0
 15 20  1  0
 14 15  1  0
 20 21  1  0
 21 22  1  0
 22 30  1  0
 22 23  2  0
 29 30  2  0
 25 29  1  0
 25 26  1  0
 24 25  2  0
 26 27  2  0
 26 28  1  0
 23 24  1  0
 14 17  1  0
 13 14  1  0
 17 18  1  0
 18 19  1  0
 13 19  1  0
  1 13  1  0
  1  2  2  0
  1  3  1  0
  3  4  1  0
  4  5  1  0
  5  6  1  0
  5 12  1  0
  6  7  1  0
  7  8  1  0
  8  9  1  0
  9 10  1  0
 10 11  1  0
 11 12  1  0
 24 31  1  0
  3 32  1  0
  3 33  1  0
  4 34  1  0
  5 35  1  0
  6 36  1  0
  6 37  1  0
  7 38  1  0
  7 39  1  0
  8 40  1  0
  8 41  1  0
  9 42  1  0
  9 43  1  0
 10 44  1  0
 10 45  1  0
 11 46  1  0
 11 47  1  0
 12 48  1  0
 12 49  1  0
 14 50  1  6
 17 51  1  0
 17 52  1  0
 18 53  1  0
 18 54  1  0
 19 55  1  0
 19 56  1  0
 20 57  1  0
 21 58  1  0
 21 59  1  0
 23 60  1  0
 27 61  1  0
 28 62  1  0
 28 63  1  0
 29 64  1  0
 30 65  1  0
 31 66  1  0
 31 67  1  0
 31 68  1  0
M  END
